87642
     RDKit          3D

 84 86  0  0  1  0  0  0  0  0999 V2000
    9.9239   -0.9013    1.3990 S   0  0  0  0  0  0  0  0  0  0  0  0
   -4.8669    5.0099    0.0125 P   0  0  0  0  0  5  0  0  0  0  0  0
   -1.8662   -0.5762    0.3579 P   0  0  0  0  0  5  0  0  0  0  0  0
    0.5900    0.4619    1.3315 P   0  0  0  0  0  5  0  0  0  0  0  0
   -5.5455    0.9077   -2.0417 O   0  0  0  0  0  0  0  0  0  0  0  0
   -5.2715    3.7279   -0.8532 O   0  0  0  0  0  0  0  0  0  0  0  0
   -6.6597    2.3852    1.0774 O   0  0  0  0  0  0  0  0  0  0  0  0
   -3.1668    0.2101   -0.1497 O   0  0  0  0  0  0  0  0  0  0  0  0
    1.0932   -1.0544    1.3335 O   0  0  0  0  0  0  0  0  0  0  0  0
   -0.7482    0.5335    0.4922 O   0  0  0  0  0  0  0  0  0  0  0  0
   -5.6704    6.2227   -0.6405 O   0  0  0  0  0  0  0  0  0  0  0  0
   -5.6255    4.8394    1.4043 O   0  0  0  0  0  0  0  0  0  0  0  0
   -3.4081    5.2822    0.1186 O   0  0  0  0  0  0  0  0  0  0  0  0
    4.9493   -2.3385    2.2963 O   0  0  0  0  0  0  0  0  0  0  0  0
   -2.2819   -0.9404    1.8578 O   0  0  0  0  0  0  0  0  0  0  0  0
   -1.5047   -1.7814   -0.4432 O   0  0  0  0  0  0  0  0  0  0  0  0
    0.1237    0.6882    2.8452 O   0  0  0  0  0  0  0  0  0  0  0  0
    6.0865   -0.6947    0.5187 O   0  0  0  0  0  0  0  0  0  0  0  0
    1.6543    1.4438    0.9529 O   0  0  0  0  0  0  0  0  0  0  0  0
    7.3361    1.4155   -2.0821 O   0  0  0  0  0  0  0  0  0  0  0  0
   -7.1994   -0.1956   -0.7648 N   0  0  0  0  0  0  0  0  0  0  0  0
   -8.9118   -1.6040   -0.5154 N   0  0  0  0  0  0  0  0  0  0  0  0
   -5.3371   -1.7633   -0.5986 N   0  0  0  0  0  0  0  0  0  0  0  0
   -6.1235   -4.0457   -0.3230 N   0  0  0  0  0  0  0  0  0  0  0  0
    4.2900    0.6981    0.3798 N   0  0  0  0  0  0  0  0  0  0  0  0
   -8.3953   -4.6461   -0.1692 N   0  0  0  0  0  0  0  0  0  0  0  0
    8.5693    1.5621   -0.1590 N   0  0  0  0  0  0  0  0  0  0  0  0
   -4.7179    2.4730   -0.4376 C   0  0  1  0  0  0  0  0  0  0  0  0
   -5.7967    1.6250    0.2286 C   0  0  2  0  0  0  0  0  0  0  0  0
   -4.3614    1.6598   -1.6856 C   0  0  1  0  0  0  0  0  0  0  0  0
   -6.5204    1.0641   -0.9928 C   0  0  1  0  0  0  0  0  0  0  0  0
   -3.1819    0.6982   -1.4808 C   0  0  0  0  0  0  0  0  0  0  0  0
   -6.6408   -1.4350   -0.6103 C   0  0  0  0  0  0  0  0  0  0  0  0
   -8.5629   -0.3481   -0.7007 C   0  0  0  0  0  0  0  0  0  0  0  0
    3.0696   -2.3429    0.7496 C   0  0  0  0  0  0  0  0  0  0  0  0
   -7.7204   -2.2985   -0.4800 C   0  0  0  0  0  0  0  0  0  0  0  0
    4.0497   -1.4663    1.5939 C   0  0  2  0  0  0  0  0  0  0  0  0
    1.8616   -1.5312    0.2375 C   0  0  0  0  0  0  0  0  0  0  0  0
    3.7957   -2.9698   -0.4605 C   0  0  0  0  0  0  0  0  0  0  0  0
    2.5324   -3.5062    1.6259 C   0  0  0  0  0  0  0  0  0  0  0  0
   -7.4208   -3.6624   -0.3326 C   0  0  0  0  0  0  0  0  0  0  0  0
    4.9025   -0.4683    0.7647 C   0  0  0  0  0  0  0  0  0  0  0  0
   -5.1746   -3.0936   -0.4723 C   0  0  0  0  0  0  0  0  0  0  0  0
    4.9007    1.6289   -0.5611 C   0  0  0  0  0  0  0  0  0  0  0  0
    6.2305    2.2072   -0.0861 C   0  0  0  0  0  0  0  0  0  0  0  0
    7.3996    1.6581   -0.8818 C   0  0  0  0  0  0  0  0  0  0  0  0
    9.7437    0.9038   -0.7040 C   0  0  0  0  0  0  0  0  0  0  0  0
    9.7618   -0.5950   -0.3977 C   0  0  0  0  0  0  0  0  0  0  0  0
   11.1636   -0.3954    1.5200 H   0  0  0  0  0  0  0  0  0  0  0  0
   -6.1241    2.6634    1.8501 H   0  0  0  0  0  0  0  0  0  0  0  0
   -5.0527    6.8594   -1.0493 H   0  0  0  0  0  0  0  0  0  0  0  0
   -6.5923    4.8707    1.2541 H   0  0  0  0  0  0  0  0  0  0  0  0
    5.7366   -1.8091    2.5323 H   0  0  0  0  0  0  0  0  0  0  0  0
   -2.2541   -1.9044    2.0121 H   0  0  0  0  0  0  0  0  0  0  0  0
    0.2106    1.6243    3.1080 H   0  0  0  0  0  0  0  0  0  0  0  0
    3.3357    0.9141    0.6760 H   0  0  0  0  0  0  0  0  0  0  0  0
   -7.9939   -5.4831    0.2354 H   0  0  0  0  0  0  0  0  0  0  0  0
   -9.2263   -4.2795    0.2833 H   0  0  0  0  0  0  0  0  0  0  0  0
    8.5105    1.6287    0.8509 H   0  0  0  0  0  0  0  0  0  0  0  0
   -3.8583    2.6561    0.2134 H   0  0  0  0  0  0  0  0  0  0  0  0
   -5.3551    0.8232    0.8306 H   0  0  0  0  0  0  0  0  0  0  0  0
   -4.1403    2.3047   -2.5443 H   0  0  0  0  0  0  0  0  0  0  0  0
   -7.2745    1.7748   -1.3560 H   0  0  0  0  0  0  0  0  0  0  0  0
   -2.2431    1.2376   -1.6597 H   0  0  0  0  0  0  0  0  0  0  0  0
   -3.2446   -0.1539   -2.1678 H   0  0  0  0  0  0  0  0  0  0  0  0
   -9.2515    0.4863   -0.7920 H   0  0  0  0  0  0  0  0  0  0  0  0
    3.5087   -0.9013    2.3635 H   0  0  0  0  0  0  0  0  0  0  0  0
    1.2106   -2.1768   -0.3623 H   0  0  0  0  0  0  0  0  0  0  0  0
    2.1762   -0.7111   -0.4136 H   0  0  0  0  0  0  0  0  0  0  0  0
    4.6701   -3.5554   -0.1455 H   0  0  0  0  0  0  0  0  0  0  0  0
    4.1396   -2.2103   -1.1685 H   0  0  0  0  0  0  0  0  0  0  0  0
    3.1311   -3.6453   -1.0124 H   0  0  0  0  0  0  0  0  0  0  0  0
    2.0966   -3.1326    2.5585 H   0  0  0  0  0  0  0  0  0  0  0  0
    3.3227   -4.2177    1.8879 H   0  0  0  0  0  0  0  0  0  0  0  0
    1.7578   -4.0680    1.0944 H   0  0  0  0  0  0  0  0  0  0  0  0
   -4.1476   -3.4492   -0.4819 H   0  0  0  0  0  0  0  0  0  0  0  0
    4.1769    2.4447   -0.6794 H   0  0  0  0  0  0  0  0  0  0  0  0
    4.9717    1.1115   -1.5242 H   0  0  0  0  0  0  0  0  0  0  0  0
    6.3787    2.0507    0.9874 H   0  0  0  0  0  0  0  0  0  0  0  0
    6.2345    3.2908   -0.2613 H   0  0  0  0  0  0  0  0  0  0  0  0
   10.6209    1.4035   -0.2830 H   0  0  0  0  0  0  0  0  0  0  0  0
    9.7699    1.0479   -1.7905 H   0  0  0  0  0  0  0  0  0  0  0  0
   10.6120   -1.0717   -0.9014 H   0  0  0  0  0  0  0  0  0  0  0  0
    8.8392   -1.0754   -0.7496 H   0  0  0  0  0  0  0  0  0  0  0  0
  1 48  1  0
  2  6  1  0
  2 11  1  0
  2 12  1  0
  2 13  2  0
  3  8  1  0
  3 10  1  0
  3 15  1  0
  3 16  2  0
  4  9  1  0
  4 10  1  0
  4 17  1  0
  4 19  2  0
  5 30  1  0
  5 31  1  0
 28  6  1  0
 29  7  1  0
  8 32  1  0
  9 38  1  0
 37 14  1  0
 18 42  2  0
 20 46  2  0
 31 21  1  0
 21 33  1  0
 21 34  1  0
 22 34  2  0
 22 36  1  0
 23 33  1  0
 23 43  2  0
 24 41  2  0
 24 43  1  0
 25 42  1  0
 25 44  1  0
 26 41  1  0
 27 46  1  0
 27 47  1  0
 28 29  1  0
 28 30  1  0
 29 31  1  0
 30 32  1  0
 33 36  2  0
 35 37  1  0
 35 38  1  0
 35 39  1  0
 35 40  1  0
 36 41  1  0
 37 42  1  0
 44 45  1  0
 45 46  1  0
 47 48  1  0
  1 49  1  0
  7 50  1  0
 11 51  1  0
 12 52  1  0
 14 53  1  0
 15 54  1  0
 17 55  1  0
 25 56  1  0
 26 57  1  0
 26 58  1  0
 27 59  1  0
 28 60  1  1
 29 61  1  1
 30 62  1  6
 31 63  1  6
 32 64  1  0
 32 65  1  0
 34 66  1  0
 37 67  1  1
 38 68  1  0
 38 69  1  0
 39 70  1  0
 39 71  1  0
 39 72  1  0
 40 73  1  0
 40 74  1  0
 40 75  1  0
 43 76  1  0
 44 77  1  0
 44 78  1  0
 45 79  1  0
 45 80  1  0
 47 81  1  0
 47 82  1  0
 48 83  1  0
 48 84  1  0
M  END

