MODEL 1
REMARK VINA RESULT:      -6.2      0.000      0.000
REMARK  Name = phenylalanine_minimized.pdb
REMARK  5 active torsions:
REMARK  status: ('A' for Active; 'I' for Inactive)
REMARK    1  A    between atoms: O_1  and  C_9
REMARK    2  A    between atoms: N_3  and  CA_5
REMARK    3  A    between atoms: CB_4  and  CA_5
REMARK    4  A    between atoms: CB_4  and  CG_6
REMARK    5  A    between atoms: CA_5  and  C_9
REMARK                            x       y       z     vdW  Elec       q    Type
REMARK                         _______ _______ _______ _____ _____    ______ ____
ROOT
ATOM      1  CA  PHE A   1      14.210  11.362  29.732  0.00  0.00    +0.000 C 
ENDROOT
BRANCH   1   2
ATOM      2  N   PHE A   1      13.311  12.534  29.551  0.00  0.00    +0.000 NA
ATOM      3  H1  PHE A   1      13.875  13.318  29.216  0.00  0.00    +0.000 HD
ATOM      4  H2  PHE A   1      12.678  12.330  28.774  0.00  0.00    +0.000 HD
ENDBRANCH   1   2
BRANCH   1   6
ATOM      5  OXT PHE A   1      15.650  11.881  31.660  0.00  0.00    +0.000 OA
ATOM      6  C   PHE A   1      14.680  11.306  31.189  0.00  0.00    +0.000 C 
BRANCH   6   7
ATOM      7  O   PHE A   1      13.893  10.545  31.974  0.00  0.00    +0.000 OA
ATOM      8  H   PHE A   1      14.444  10.365  32.766  0.00  0.00    +0.000 HD
ENDBRANCH   6   7
ENDBRANCH   1   6
BRANCH   1   9
ATOM      9  CB  PHE A   1      15.434  11.437  28.805  0.00  0.00    +0.000 C 
BRANCH   9  10
ATOM     10  CG  PHE A   1      15.087  11.242  27.346  0.00  0.00    +0.000 A 
ATOM     11  CD1 PHE A   1      15.506  12.173  26.387  0.00  0.00    +0.000 A 
ATOM     12  CD2 PHE A   1      14.360  10.118  26.930  0.00  0.00    +0.000 A 
ATOM     13  CE1 PHE A   1      15.193  11.990  25.038  0.00  0.00    +0.000 A 
ATOM     14  CE2 PHE A   1      14.050   9.936  25.581  0.00  0.00    +0.000 A 
ATOM     15  CZ  PHE A   1      14.465  10.872  24.636  0.00  0.00    +0.000 A 
ENDBRANCH   9  10
ENDBRANCH   1   9
TORSDOF 5
ENDMDL
MODEL 2
REMARK VINA RESULT:      -6.0      1.737      2.240
REMARK  Name = phenylalanine_minimized.pdb
REMARK  5 active torsions:
REMARK  status: ('A' for Active; 'I' for Inactive)
REMARK    1  A    between atoms: O_1  and  C_9
REMARK    2  A    between atoms: N_3  and  CA_5
REMARK    3  A    between atoms: CB_4  and  CA_5
REMARK    4  A    between atoms: CB_4  and  CG_6
REMARK    5  A    between atoms: CA_5  and  C_9
REMARK                            x       y       z     vdW  Elec       q    Type
REMARK                         _______ _______ _______ _____ _____    ______ ____
ROOT
ATOM      1  CA  PHE A   1      16.084  11.636  29.242  0.00  0.00    +0.000 C 
ENDROOT
BRANCH   1   2
ATOM      2  N   PHE A   1      17.479  12.131  29.386  0.00  0.00    +0.000 NA
ATOM      3  H1  PHE A   1      17.625  12.873  28.700  0.00  0.00    +0.000 HD
ATOM      4  H2  PHE A   1      17.553  12.606  30.289  0.00  0.00    +0.000 HD
ENDBRANCH   1   2
BRANCH   1   6
ATOM      5  OXT PHE A   1      15.931  11.489  31.694  0.00  0.00    +0.000 OA
ATOM      6  C   PHE A   1      15.394  11.656  30.610  0.00  0.00    +0.000 C 
BRANCH   6   7
ATOM      7  O   PHE A   1      14.072  11.906  30.536  0.00  0.00    +0.000 OA
ATOM      8  H   PHE A   1      13.757  11.319  29.816  0.00  0.00    +0.000 HD
ENDBRANCH   6   7
ENDBRANCH   1   6
BRANCH   1   9
ATOM      9  CB  PHE A   1      16.045  10.207  28.674  0.00  0.00    +0.000 C 
BRANCH   9  10
ATOM     10  CG  PHE A   1      15.102  10.059  27.501  0.00  0.00    +0.000 A 
ATOM     11  CD1 PHE A   1      13.771   9.670  27.707  0.00  0.00    +0.000 A 
ATOM     12  CD2 PHE A   1      15.538  10.325  26.196  0.00  0.00    +0.000 A 
ATOM     13  CE1 PHE A   1      12.896   9.540  26.626  0.00  0.00    +0.000 A 
ATOM     14  CE2 PHE A   1      14.661  10.195  25.117  0.00  0.00    +0.000 A 
ATOM     15  CZ  PHE A   1      13.342   9.802  25.332  0.00  0.00    +0.000 A 
ENDBRANCH   9  10
ENDBRANCH   1   9
TORSDOF 5
ENDMDL
MODEL 3
REMARK VINA RESULT:      -6.0      1.806      2.055
REMARK  Name = phenylalanine_minimized.pdb
REMARK  5 active torsions:
REMARK  status: ('A' for Active; 'I' for Inactive)
REMARK    1  A    between atoms: O_1  and  C_9
REMARK    2  A    between atoms: N_3  and  CA_5
REMARK    3  A    between atoms: CB_4  and  CA_5
REMARK    4  A    between atoms: CB_4  and  CG_6
REMARK    5  A    between atoms: CA_5  and  C_9
REMARK                            x       y       z     vdW  Elec       q    Type
REMARK                         _______ _______ _______ _____ _____    ______ ____
ROOT
ATOM      1  CA  PHE A   1      16.309  11.530  29.352  0.00  0.00    +0.000 C 
ENDROOT
BRANCH   1   2
ATOM      2  N   PHE A   1      17.715  11.793  29.759  0.00  0.00    +0.000 NA
ATOM      3  H1  PHE A   1      18.254  10.937  29.612  0.00  0.00    +0.000 HD
ATOM      4  H2  PHE A   1      18.118  12.458  29.094  0.00  0.00    +0.000 HD
ENDBRANCH   1   2
BRANCH   1   6
ATOM      5  OXT PHE A   1      14.192  11.966  30.530  0.00  0.00    +0.000 OA
ATOM      6  C   PHE A   1      15.388  11.718  30.561  0.00  0.00    +0.000 C 
BRANCH   6   7
ATOM      7  O   PHE A   1      16.020  11.564  31.741  0.00  0.00    +0.000 OA
ATOM      8  H   PHE A   1      16.679  12.290  31.757  0.00  0.00    +0.000 HD
ENDBRANCH   6   7
ENDBRANCH   1   6
BRANCH   1   9
ATOM      9  CB  PHE A   1      16.136  10.107  28.796  0.00  0.00    +0.000 C 
BRANCH   9  10
ATOM     10  CG  PHE A   1      15.219  10.045  27.595  0.00  0.00    +0.000 A 
ATOM     11  CD1 PHE A   1      15.709  10.325  26.313  0.00  0.00    +0.000 A 
ATOM     12  CD2 PHE A   1      13.871   9.688  27.744  0.00  0.00    +0.000 A 
ATOM     13  CE1 PHE A   1      14.865  10.261  25.202  0.00  0.00    +0.000 A 
ATOM     14  CE2 PHE A   1      13.030   9.622  26.632  0.00  0.00    +0.000 A 
ATOM     15  CZ  PHE A   1      13.526   9.910  25.363  0.00  0.00    +0.000 A 
ENDBRANCH   9  10
ENDBRANCH   1   9
TORSDOF 5
ENDMDL
MODEL 4
REMARK VINA RESULT:      -5.8      2.684      3.235
REMARK  Name = phenylalanine_minimized.pdb
REMARK  5 active torsions:
REMARK  status: ('A' for Active; 'I' for Inactive)
REMARK    1  A    between atoms: O_1  and  C_9
REMARK    2  A    between atoms: N_3  and  CA_5
REMARK    3  A    between atoms: CB_4  and  CA_5
REMARK    4  A    between atoms: CB_4  and  CG_6
REMARK    5  A    between atoms: CA_5  and  C_9
REMARK                            x       y       z     vdW  Elec       q    Type
REMARK                         _______ _______ _______ _____ _____    ______ ____
ROOT
ATOM      1  CA  PHE A   1      16.398  11.036  28.073  0.00  0.00    +0.000 C 
ENDROOT
BRANCH   1   2
ATOM      2  N   PHE A   1      16.867  12.387  27.666  0.00  0.00    +0.000 NA
ATOM      3  H1  PHE A   1      16.058  12.920  27.342  0.00  0.00    +0.000 HD
ATOM      4  H2  PHE A   1      17.173  12.883  28.507  0.00  0.00    +0.000 HD
ENDBRANCH   1   2
BRANCH   1   6
ATOM      5  OXT PHE A   1      17.673   9.085  28.867  0.00  0.00    +0.000 OA
ATOM      6  C   PHE A   1      17.538  10.296  28.782  0.00  0.00    +0.000 C 
BRANCH   6   7
ATOM      7  O   PHE A   1      18.452  11.123  29.325  0.00  0.00    +0.000 OA
ATOM      8  H   PHE A   1      18.974  11.441  28.558  0.00  0.00    +0.000 HD
ENDBRANCH   6   7
ENDBRANCH   1   6
BRANCH   1   9
ATOM      9  CB  PHE A   1      15.930  10.210  26.864  0.00  0.00    +0.000 C 
BRANCH   9  10
ATOM     10  CG  PHE A   1      14.802  10.863  26.098  0.00  0.00    +0.000 A 
ATOM     11  CD1 PHE A   1      13.517  10.936  26.653  0.00  0.00    +0.000 A 
ATOM     12  CD2 PHE A   1      15.027  11.422  24.832  0.00  0.00    +0.000 A 
ATOM     13  CE1 PHE A   1      12.476  11.547  25.950  0.00  0.00    +0.000 A 
ATOM     14  CE2 PHE A   1      13.986  12.032  24.132  0.00  0.00    +0.000 A 
ATOM     15  CZ  PHE A   1      12.711  12.094  24.690  0.00  0.00    +0.000 A 
ENDBRANCH   9  10
ENDBRANCH   1   9
TORSDOF 5
ENDMDL
MODEL 5
REMARK VINA RESULT:      -5.7      2.169      2.708
REMARK  Name = phenylalanine_minimized.pdb
REMARK  5 active torsions:
REMARK  status: ('A' for Active; 'I' for Inactive)
REMARK    1  A    between atoms: O_1  and  C_9
REMARK    2  A    between atoms: N_3  and  CA_5
REMARK    3  A    between atoms: CB_4  and  CA_5
REMARK    4  A    between atoms: CB_4  and  CG_6
REMARK    5  A    between atoms: CA_5  and  C_9
REMARK                            x       y       z     vdW  Elec       q    Type
REMARK                         _______ _______ _______ _____ _____    ______ ____
ROOT
ATOM      1  CA  PHE A   1      14.546   9.477  30.806  0.00  0.00    +0.000 C 
ENDROOT
BRANCH   1   2
ATOM      2  N   PHE A   1      13.801   9.902  32.021  0.00  0.00    +0.000 NA
ATOM      3  H1  PHE A   1      12.913   9.397  32.043  0.00  0.00    +0.000 HD
ATOM      4  H2  PHE A   1      14.307   9.555  32.840  0.00  0.00    +0.000 HD
ENDBRANCH   1   2
BRANCH   1   6
ATOM      5  OXT PHE A   1      16.402   7.861  30.735  0.00  0.00    +0.000 OA
ATOM      6  C   PHE A   1      15.882   8.853  31.223  0.00  0.00    +0.000 C 
BRANCH   6   7
ATOM      7  O   PHE A   1      16.496   9.525  32.216  0.00  0.00    +0.000 OA
ATOM      8  H   PHE A   1      16.123   9.136  33.036  0.00  0.00    +0.000 HD
ENDBRANCH   6   7
ENDBRANCH   1   6
BRANCH   1   9
ATOM      9  CB  PHE A   1      14.810  10.660  29.860  0.00  0.00    +0.000 C 
BRANCH   9  10
ATOM     10  CG  PHE A   1      14.453  10.362  28.421  0.00  0.00    +0.000 A 
ATOM     11  CD1 PHE A   1      13.145   9.995  28.076  0.00  0.00    +0.000 A 
ATOM     12  CD2 PHE A   1      15.418  10.467  27.410  0.00  0.00    +0.000 A 
ATOM     13  CE1 PHE A   1      12.812   9.728  26.747  0.00  0.00    +0.000 A 
ATOM     14  CE2 PHE A   1      15.083  10.200  26.081  0.00  0.00    +0.000 A 
ATOM     15  CZ  PHE A   1      13.781   9.830  25.751  0.00  0.00    +0.000 A 
ENDBRANCH   9  10
ENDBRANCH   1   9
TORSDOF 5
ENDMDL
MODEL 6
REMARK VINA RESULT:      -5.7      1.822      2.246
REMARK  Name = phenylalanine_minimized.pdb
REMARK  5 active torsions:
REMARK  status: ('A' for Active; 'I' for Inactive)
REMARK    1  A    between atoms: O_1  and  C_9
REMARK    2  A    between atoms: N_3  and  CA_5
REMARK    3  A    between atoms: CB_4  and  CA_5
REMARK    4  A    between atoms: CB_4  and  CG_6
REMARK    5  A    between atoms: CA_5  and  C_9
REMARK                            x       y       z     vdW  Elec       q    Type
REMARK                         _______ _______ _______ _____ _____    ______ ____
ROOT
ATOM      1  CA  PHE A   1      13.537   9.292  29.762  0.00  0.00    +0.000 C 
ENDROOT
BRANCH   1   2
ATOM      2  N   PHE A   1      12.079   9.130  30.008  0.00  0.00    +0.000 NA
ATOM      3  H1  PHE A   1      11.770   8.278  29.535  0.00  0.00    +0.000 HD
ATOM      4  H2  PHE A   1      11.946   8.927  31.001  0.00  0.00    +0.000 HD
ENDBRANCH   1   2
BRANCH   1   6
ATOM      5  OXT PHE A   1      15.469   9.067  31.272  0.00  0.00    +0.000 OA
ATOM      6  C   PHE A   1      14.280   9.291  31.102  0.00  0.00    +0.000 C 
BRANCH   6   7
ATOM      7  O   PHE A   1      13.487   9.590  32.150  0.00  0.00    +0.000 OA
ATOM      8  H   PHE A   1      14.009  10.240  32.668  0.00  0.00    +0.000 HD
ENDBRANCH   6   7
ENDBRANCH   1   6
BRANCH   1   9
ATOM      9  CB  PHE A   1      13.844  10.598  29.012  0.00  0.00    +0.000 C 
BRANCH   9  10
ATOM     10  CG  PHE A   1      14.037  10.399  27.525  0.00  0.00    +0.000 A 
ATOM     11  CD1 PHE A   1      12.949  10.063  26.708  0.00  0.00    +0.000 A 
ATOM     12  CD2 PHE A   1      15.300  10.565  26.941  0.00  0.00    +0.000 A 
ATOM     13  CE1 PHE A   1      13.124   9.887  25.334  0.00  0.00    +0.000 A 
ATOM     14  CE2 PHE A   1      15.472  10.389  25.567  0.00  0.00    +0.000 A 
ATOM     15  CZ  PHE A   1      14.385  10.049  24.764  0.00  0.00    +0.000 A 
ENDBRANCH   9  10
ENDBRANCH   1   9
TORSDOF 5
ENDMDL
MODEL 7
REMARK VINA RESULT:      -5.6      2.895      3.195
REMARK  Name = phenylalanine_minimized.pdb
REMARK  5 active torsions:
REMARK  status: ('A' for Active; 'I' for Inactive)
REMARK    1  A    between atoms: O_1  and  C_9
REMARK    2  A    between atoms: N_3  and  CA_5
REMARK    3  A    between atoms: CB_4  and  CA_5
REMARK    4  A    between atoms: CB_4  and  CG_6
REMARK    5  A    between atoms: CA_5  and  C_9
REMARK                            x       y       z     vdW  Elec       q    Type
REMARK                         _______ _______ _______ _____ _____    ______ ____
ROOT
ATOM      1  CA  PHE A   1      17.147   9.837  28.659  0.00  0.00    +0.000 C 
ENDROOT
BRANCH   1   2
ATOM      2  N   PHE A   1      16.357   9.462  29.862  0.00  0.00    +0.000 NA
ATOM      3  H1  PHE A   1      15.441   9.908  29.792  0.00  0.00    +0.000 HD
ATOM      4  H2  PHE A   1      16.154   8.461  29.808  0.00  0.00    +0.000 HD
ENDBRANCH   1   2
BRANCH   1   6
ATOM      5  OXT PHE A   1      19.354   8.861  29.149  0.00  0.00    +0.000 OA
ATOM      6  C   PHE A   1      18.638   9.842  29.013  0.00  0.00    +0.000 C 
BRANCH   6   7
ATOM      7  O   PHE A   1      19.147  11.081  29.157  0.00  0.00    +0.000 OA
ATOM      8  H   PHE A   1      19.547  11.280  28.283  0.00  0.00    +0.000 HD
ENDBRANCH   6   7
ENDBRANCH   1   6
BRANCH   1   9
ATOM      9  CB  PHE A   1      16.746  11.222  28.126  0.00  0.00    +0.000 C 
BRANCH   9  10
ATOM     10  CG  PHE A   1      15.860  11.155  26.902  0.00  0.00    +0.000 A 
ATOM     11  CD1 PHE A   1      15.852  12.204  25.974  0.00  0.00    +0.000 A 
ATOM     12  CD2 PHE A   1      15.050  10.035  26.668  0.00  0.00    +0.000 A 
ATOM     13  CE1 PHE A   1      15.041  12.140  24.839  0.00  0.00    +0.000 A 
ATOM     14  CE2 PHE A   1      14.241   9.972  25.532  0.00  0.00    +0.000 A 
ATOM     15  CZ  PHE A   1      14.235  11.025  24.619  0.00  0.00    +0.000 A 
ENDBRANCH   9  10
ENDBRANCH   1   9
TORSDOF 5
ENDMDL
MODEL 8
REMARK VINA RESULT:      -5.6      2.007      2.156
REMARK  Name = phenylalanine_minimized.pdb
REMARK  5 active torsions:
REMARK  status: ('A' for Active; 'I' for Inactive)
REMARK    1  A    between atoms: O_1  and  C_9
REMARK    2  A    between atoms: N_3  and  CA_5
REMARK    3  A    between atoms: CB_4  and  CA_5
REMARK    4  A    between atoms: CB_4  and  CG_6
REMARK    5  A    between atoms: CA_5  and  C_9
REMARK                            x       y       z     vdW  Elec       q    Type
REMARK                         _______ _______ _______ _____ _____    ______ ____
ROOT
ATOM      1  CA  PHE A   1      16.517  10.219  29.528  0.00  0.00    +0.000 C 
ENDROOT
BRANCH   1   2
ATOM      2  N   PHE A   1      17.206   8.950  29.171  0.00  0.00    +0.000 NA
ATOM      3  H1  PHE A   1      18.127   8.953  29.613  0.00  0.00    +0.000 HD
ATOM      4  H2  PHE A   1      16.710   8.182  29.630  0.00  0.00    +0.000 HD
ENDBRANCH   1   2
BRANCH   1   6
ATOM      5  OXT PHE A   1      15.963  11.271  31.683  0.00  0.00    +0.000 OA
ATOM      6  C   PHE A   1      16.518  10.386  31.051  0.00  0.00    +0.000 C 
BRANCH   6   7
ATOM      7  O   PHE A   1      17.202   9.418  31.692  0.00  0.00    +0.000 OA
ATOM      8  H   PHE A   1      17.191   9.698  32.632  0.00  0.00    +0.000 HD
ENDBRANCH   6   7
ENDBRANCH   1   6
BRANCH   1   9
ATOM      9  CB  PHE A   1      15.068  10.242  29.014  0.00  0.00    +0.000 C 
BRANCH   9  10
ATOM     10  CG  PHE A   1      14.965  10.551  27.538  0.00  0.00    +0.000 A 
ATOM     11  CD1 PHE A   1      15.736  11.575  26.972  0.00  0.00    +0.000 A 
ATOM     12  CD2 PHE A   1      14.112   9.807  26.711  0.00  0.00    +0.000 A 
ATOM     13  CE1 PHE A   1      15.648  11.857  25.607  0.00  0.00    +0.000 A 
ATOM     14  CE2 PHE A   1      14.026  10.089  25.346  0.00  0.00    +0.000 A 
ATOM     15  CZ  PHE A   1      14.793  11.114  24.796  0.00  0.00    +0.000 A 
ENDBRANCH   9  10
ENDBRANCH   1   9
TORSDOF 5
ENDMDL
MODEL 9
REMARK VINA RESULT:      -5.5      2.938      4.128
REMARK  Name = phenylalanine_minimized.pdb
REMARK  5 active torsions:
REMARK  status: ('A' for Active; 'I' for Inactive)
REMARK    1  A    between atoms: O_1  and  C_9
REMARK    2  A    between atoms: N_3  and  CA_5
REMARK    3  A    between atoms: CB_4  and  CA_5
REMARK    4  A    between atoms: CB_4  and  CG_6
REMARK    5  A    between atoms: CA_5  and  C_9
REMARK                            x       y       z     vdW  Elec       q    Type
REMARK                         _______ _______ _______ _____ _____    ______ ____
ROOT
ATOM      1  CA  PHE A   1      13.929  10.626  28.904  0.00  0.00    +0.000 C 
ENDROOT
BRANCH   1   2
ATOM      2  N   PHE A   1      12.668  10.547  28.118  0.00  0.00    +0.000 NA
ATOM      3  H1  PHE A   1      11.904  10.879  28.710  0.00  0.00    +0.000 HD
ATOM      4  H2  PHE A   1      12.721  11.238  27.366  0.00  0.00    +0.000 HD
ENDBRANCH   1   2
BRANCH   1   6
ATOM      5  OXT PHE A   1      15.067  12.497  30.029  0.00  0.00    +0.000 OA
ATOM      6  C   PHE A   1      14.072  12.034  29.492  0.00  0.00    +0.000 C 
BRANCH   6   7
ATOM      7  O   PHE A   1      12.962  12.785  29.352  0.00  0.00    +0.000 OA
ATOM      8  H   PHE A   1      13.301  13.671  29.102  0.00  0.00    +0.000 HD
ENDBRANCH   6   7
ENDBRANCH   1   6
BRANCH   1   9
ATOM      9  CB  PHE A   1      15.158  10.309  28.037  0.00  0.00    +0.000 C 
BRANCH   9  10
ATOM     10  CG  PHE A   1      16.167   9.426  28.736  0.00  0.00    +0.000 A 
ATOM     11  CD1 PHE A   1      15.828   8.765  29.925  0.00  0.00    +0.000 A 
ATOM     12  CD2 PHE A   1      17.448   9.240  28.198  0.00  0.00    +0.000 A 
ATOM     13  CE1 PHE A   1      16.756   7.943  30.568  0.00  0.00    +0.000 A 
ATOM     14  CE2 PHE A   1      18.374   8.417  28.841  0.00  0.00    +0.000 A 
ATOM     15  CZ  PHE A   1      18.028   7.770  30.026  0.00  0.00    +0.000 A 
ENDBRANCH   9  10
ENDBRANCH   1   9
TORSDOF 5
ENDMDL
